!-Generator IDFEditor 1.48
!-Option OriginalOrderBottom UseSpecialFormat

!-NOTE: All comments with '!-' are ignored by the IDFEditor and are generated automatically.
!-      Use '!' comments if they need to be retained when using the IDFEditor.

!-----  YP
!- All the device is fixed parameter
!- FanCoil is the 1.2 factor
!- Chiller and others plant devices are 1.0 factor
!- Schedule is following the code of china public building energy conservation code 2015
!-----  YP


Version,8.5;

Building,
    S6,                      !- Name
    -10,                     !- North Axis {deg}
    City,                    !- Terrain
    0.04,                    !- Loads Convergence Tolerance Value
    0.4,                     !- Temperature Convergence Tolerance Value {deltaC}
    FullInteriorAndExterior, !- Solar Distribution
    25,                      !- Maximum Number of Warmup Days
    6;                       !- Minimum Number of Warmup Days

Timestep,60;

SimulationControl,
    Yes,                     !- Do Zone Sizing Calculation
    Yes,                     !- Do System Sizing Calculation
    Yes,                     !- Do Plant Sizing Calculation
    Yes,                     !- Run Simulation for Sizing Periods
    Yes;                     !- Run Simulation for Weather File Run Periods

Site:Location,
    Wuhan_Hubei_CHN Design_Conditions,  !- Name
    30.62,                   !- Latitude {deg}
    114.13,                  !- Longitude {deg}
    8.00,                    !- Time Zone {hr}
    23.10;                   !- Elevation {m}
	
Site:GroundTemperature:BuildingSurface,6.9,5.9,7.7,10.5,17.9,23.6,27.4,28.6,26.6,22.2,16.3,10.8;

GlobalGeometryRules,
    UpperLeftCorner,         !- Starting Vertex Position
    Counterclockwise,        !- Vertex Entry Direction
    Relative;                !- Coordinate System

Material,
    F08 Metal surface,       !- Name
    Smooth,                  !- Roughness
    0.0008,                  !- Thickness {m}
    45.28,                   !- Conductivity {W/m-K}
    7824,                    !- Density {kg/m3}
    500;                     !- Specific Heat {J/kg-K}

Material,
    I01 25mm insulation board,  !- Name
    MediumRough,             !- Roughness
    0.0254,                  !- Thickness {m}
    0.03,                    !- Conductivity {W/m-K}
    43,                      !- Density {kg/m3}
    1210;                    !- Specific Heat {J/kg-K}

Material,
    I02 50mm insulation board,  !- Name
    MediumRough,             !- Roughness
    0.0508,                  !- Thickness {m}
    0.03,                    !- Conductivity {W/m-K}
    43,                      !- Density {kg/m3}
    1210;                    !- Specific Heat {J/kg-K}

Material,
    I03 75mm insulation board,  !- Name
    MediumRough,             !- Roughness
    0.0762,                  !- Thickness {m}
    0.03,                    !- Conductivity {W/m-K}
    43,                      !- Density {kg/m3}
    1210;                    !- Specific Heat {J/kg-K}

Material,
    G01a 19mm gypsum board,  !- Name
    MediumSmooth,            !- Roughness
    0.019,                   !- Thickness {m}
    0.16,                    !- Conductivity {W/m-K}
    800,                     !- Density {kg/m3}
    1090;                    !- Specific Heat {J/kg-K}

Material,
    M11 100mm lightweight concrete,  !- Name
    MediumRough,             !- Roughness
    0.1016,                  !- Thickness {m}
    0.53,                    !- Conductivity {W/m-K}
    1280,                    !- Density {kg/m3}
    840;                     !- Specific Heat {J/kg-K}

Material,
    F16 Acoustic tile,       !- Name
    MediumSmooth,            !- Roughness
    0.0191,                  !- Thickness {m}
    0.06,                    !- Conductivity {W/m-K}
    368,                     !- Density {kg/m3}
    590;                     !- Specific Heat {J/kg-K}

Material,
    M01 100mm brick,         !- Name
    MediumRough,             !- Roughness
    0.1016,                  !- Thickness {m}
    0.89,                    !- Conductivity {W/m-K}
    1920,                    !- Density {kg/m3}
    790;                     !- Specific Heat {J/kg-K}

Material,
    M15 200mm heavyweight concrete,  !- Name
    MediumRough,             !- Roughness
    0.2032,                  !- Thickness {m}
    1.95,                    !- Conductivity {W/m-K}
    2240,                    !- Density {kg/m3}
    900;                     !- Specific Heat {J/kg-K}

Material,
    M05 200mm concrete block,!- Name
    MediumRough,             !- Roughness
    0.2032,                  !- Thickness {m}
    1.11,                    !- Conductivity {W/m-K}
    800,                     !- Density {kg/m3}
    920;                     !- Specific Heat {J/kg-K}

Material,
    G05 25mm wood,           !- Name
    MediumSmooth,            !- Roughness
    0.0254,                  !- Thickness {m}
    0.15,                    !- Conductivity {W/m-K}
    608,                     !- Density {kg/m3}
    1630;                    !- Specific Heat {J/kg-K}

Material:AirGap,
    F04 Wall air space resistance,  !- Name
    0.15;                    !- Thermal Resistance {m2-K/W}

Material:AirGap,
    F05 Ceiling air space resistance,  !- Name
    0.18;                    !- Thermal Resistance {m2-K/W}

WindowMaterial:Glazing,
    Clear 3mm,               !- Name
    SpectralAverage,         !- Optical Data Type
    ,                        !- Window Glass Spectral Data Set Name
    0.003,                   !- Thickness {m}
    0.837,                   !- Solar Transmittance at Normal Incidence
    0.075,                   !- Front Side Solar Reflectance at Normal Incidence
    0.075,                   !- Back Side Solar Reflectance at Normal Incidence
    0.898,                   !- Visible Transmittance at Normal Incidence
    0.081,                   !- Front Side Visible Reflectance at Normal Incidence
    0.081,                   !- Back Side Visible Reflectance at Normal Incidence
    0,                       !- Infrared Transmittance at Normal Incidence
    0.84,                    !- Front Side Infrared Hemispherical Emissivity
    0.84,                    !- Back Side Infrared Hemispherical Emissivity
    0.9;                     !- Conductivity {W/m-K}

WindowMaterial:Gas,
    Air 13mm,                !- Name
    Air,                     !- Gas Type
    0.0127;                  !- Thickness {m}

Construction,
    Exterior Floor,          !- Name
    I02 50mm insulation board,  !- Outside Layer
    M15 200mm heavyweight concrete;  !- Layer 2

Construction,
    Interior Floor,          !- Name
    F16 Acoustic tile,       !- Outside Layer
    F05 Ceiling air space resistance,  !- Layer 2
    M11 100mm lightweight concrete;  !- Layer 3

Construction,
    Exterior Wall,           !- Name
    M01 100mm brick,         !- Outside Layer
    M15 200mm heavyweight concrete,  !- Layer 2
    I02 50mm insulation board,  !- Layer 3
    F04 Wall air space resistance,  !- Layer 4
    G01a 19mm gypsum board;  !- Layer 5

Construction,
    Interior Wall,           !- Name
    G01a 19mm gypsum board,  !- Outside Layer
    F04 Wall air space resistance,  !- Layer 2
    G01a 19mm gypsum board;  !- Layer 3

Construction,
    Heavy Roof,              !- Name
    M15 200mm heavyweight concrete,  !- Outside Layer
    F05 Ceiling air space resistance,  !- Layer 2
    I03 75mm insulation board;  !- Layer 3

Construction,
    Exterior Roof,           !- Name
    M11 100mm lightweight concrete,  !- Outside Layer
    F05 Ceiling air space resistance,  !- Layer 2
    F16 Acoustic tile;       !- Layer 3

Construction,
    Interior Ceiling,        !- Name
    M11 100mm lightweight concrete,  !- Outside Layer
    F05 Ceiling air space resistance,  !- Layer 2
    F16 Acoustic tile;       !- Layer 3

Construction,
    Exterior Window,         !- Name
    Clear 3mm,               !- Outside Layer
    Air 13mm,                !- Layer 2
    Clear 3mm;               !- Layer 3

Construction,
    Interior Window,         !- Name
    Clear 3mm;               !- Outside Layer

Construction,
    Exterior Door,           !- Name
    F08 Metal surface,       !- Outside Layer
    I01 25mm insulation board;  !- Layer 2

Construction,
    Interior Door,           !- Name
    G05 25mm wood;           !- Outside Layer

ScheduleTypeLimits,
    Any Number;              !- Name

ScheduleTypeLimits,
    Fraction,                !- Name
    0.0,                     !- Lower Limit Value
    1.0,                     !- Upper Limit Value
    CONTINUOUS;              !- Numeric Type

ScheduleTypeLimits,
    Temperature,             !- Name
    -60,                     !- Lower Limit Value
    200,                     !- Upper Limit Value
    CONTINUOUS;              !- Numeric Type

ScheduleTypeLimits,
    On/Off,                  !- Name
    0,                       !- Lower Limit Value
    1,                       !- Upper Limit Value
    DISCRETE;                !- Numeric Type

ScheduleTypeLimits,
    Control Type,            !- Name
    0,                       !- Lower Limit Value
    4,                       !- Upper Limit Value
    DISCRETE;                !- Numeric Type

ScheduleTypeLimits,
    Humidity,                !- Name
    10,                      !- Lower Limit Value
    90,                      !- Upper Limit Value
    CONTINUOUS;              !- Numeric Type

ScheduleTypeLimits,
    Number;                  !- Name

Schedule:Compact,
    Office Lights Schedule,  !- Name
    Fraction,                !- Schedule Type Limits Name
    Through: 12/31,          !- Field 1
    For: Weekdays,           !- Field 2
    Until: 07:00, 0.0,       !- Field 4
    Until: 08:00, 0.1,       !- Field 6
    Until: 09:00, 0.5,       !- Field 8
    Until: 12:00, 0.95,      !- Field 10
    Until: 14:00, 0.8,       !- Field 12
    Until: 18:00, 0.95,      !- Field 14
    Until: 20:00, 0.3,       !- Field 16
    Until: 24:00, 0,         !- Field 18
    For: SummerDesignDay,    !- Field 19
    Until: 24:00, 1.0,       !- Field 21
    For: WinterDesignDay,    !- Field 22
    Until: 24:00, 0.0,       !- Field 24
    For: Saturday Sunday Holidays AllOtherDays,  !- Field 25
    Until: 24:00, 0.0;       !- Field 27

Schedule:Compact,
    Office Equipment Schedule,  !- Name
    Fraction,                !- Schedule Type Limits Name
    Through: 12/31,          !- Field 1
    For: Weekdays,           !- Field 2
    Until: 07:00, 0.0,       !- Field 4
    Until: 08:00, 0.10,      !- Field 6
    Until: 09:00, 0.50,      !- Field 8
    Until: 12:00, 0.95,      !- Field 10
    Until: 14:00, 0.50,      !- Field 12
    Until: 18:00, 0.95,      !- Field 14
    Until: 20:00, 0.30,      !- Field 16
    Until: 24:00, 0.0,       !- Field 18
    For: SummerDesignDay,    !- Field 19
    Until: 24:00, 1.0,       !- Field 21
    For: WinterDesignDay,    !- Field 22
    Until: 24:00, 0.0,       !- Field 24
    For: Saturday Sunday Holidays AllOtherDays,  !- Field 25
    Until: 24:00, 0.0;       !- Field 27

Schedule:Compact,
    Office Occupancy Schedule,  !- Name
    Fraction,                !- Schedule Type Limits Name
    Through: 12/31,          !- Field 1
    For: Weekdays,           !- Field 2
    Until: 07:00, 0.0,       !- Field 4
    Until: 08:00, 0.1,       !- Field 6
    Until: 09:00, 0.5,       !- Field 8
    Until: 12:00, 0.95,      !- Field 10
    Until: 14:00, 0.80,      !- Field 12
    Until: 18:00, 0.95,      !- Field 14
    Until: 20:00, 0.3,       !- Field 16
    Until: 24:00, 0.0,       !- Field 18
    For: SummerDesignDay,    !- Field 19
    Until: 24:00, 1.0,       !- Field 21
    For: WinterDesignDay,    !- Field 22
    Until: 24:00, 1.0,       !- Field 24
    For: Saturday Sunday Holidays AllOtherDays,  !- Field 25
    Until: 24:00, 0.0;       !- Field 27

Schedule:Compact,
    Infiltration Schedule,   !- Name
    Fraction,                !- Schedule Type Limits Name
    Through: 12/31,          !- Field 1
    For: Weekdays SummerDesignDay WinterDesignDay,  !- Field 2
    Until: 07:00, 1.0,       !- Field 4
    Until: 20:00, 0.0,       !- Field 6
    Until: 24:00, 1.0,       !- Field 8
    For: Saturday Sunday Holidays AllOtherDays,  !- Field 9
    Until: 24:00, 1.0;       !- Field 11

Schedule:Compact,
    Infiltration Half On Schedule,  !- Name
    Fraction,                !- Schedule Type Limits Name
    Through: 12/31,          !- Field 1
    For: Weekdays SummerDesignDay WinterDesignDay,  !- Field 2
    Until: 07:00, 1.0,       !- Field 4
    Until: 20:00, 0.5,       !- Field 6
    Until: 24:00, 1.0,       !- Field 8
    For: Saturday Sunday Holidays AllOtherDays,  !- Field 9
    Until: 24:00, 1.0;       !- Field 11

Schedule:Compact,
    Infiltration Quarter On Schedule,  !- Name
    Fraction,                !- Schedule Type Limits Name
    Through: 12/31,          !- Field 1
    For: Weekdays SummerDesignDay WinterDesignDay,  !- Field 2
    Until: 07:00, 1.0,       !- Field 4
    Until: 20:00, 0.25,      !- Field 6
    Until: 24:00, 1.0,       !- Field 8
    For: Saturday Sunday Holidays AllOtherDays,  !- Field 9
    Until: 24:00, 1.0;       !- Field 11

Schedule:Compact,
    Hours of Operation Schedule,  !- Name
    On/Off,                  !- Schedule Type Limits Name
    Through: 12/31,          !- Field 1
    For: Weekdays SummerDesignDay WinterDesignDay,  !- Field 2
    Until: 07:00, 0.0,       !- Field 4
    Until: 18:00, 1.0,       !- Field 6
    Until: 24:00, 0.0,       !- Field 8
    For: Saturday Sunday Holidays AllOtherDays,  !- Field 9
    Until: 24:00, 0.0;       !- Field 11

Schedule:Compact,
    Always On,               !- Name
    Fraction,                !- Schedule Type Limits Name
    Through: 12/31,          !- Field 1
    For: AllDays,            !- Field 2
    Until: 24:00, 1.0;       !- Field 4

Schedule:Compact,
    Always Off,              !- Name
    Fraction,                !- Schedule Type Limits Name
    Through: 12/31,          !- Field 1
    For: AllDays,            !- Field 2
    Until: 24:00, 0.0;       !- Field 4

Schedule:Compact,
    Heating Setpoint Schedule,  !- Name
    Temperature,             !- Schedule Type Limits Name
    Through: 12/31,          !- Field 1
    For: Weekdays,           !- Field 2
    Until: 06:00, 5,         !- Field 4
    Until: 07:00, 12,        !- Field 6
    Until: 08:00, 18,        !- Field 8
    Until: 18:00, 20.0,      !- Field 10
    Until: 19:00, 18.0,      !- Field 12
    Until: 20:00, 12.0,      !- Field 14
    Until: 24:00, 5.6,       !- Field 16
    For SummerDesignDay,     !- Field 17
    Until: 24:00, 5,         !- Field 19
    For: WinterDesignDay,    !- Field 20
    Until: 24:00, 20.0,      !- Field 22
    For: Saturday Sunday Holidays AllOtherDays,  !- Field 23
    Until: 24:00, 5;         !- Field 25

Schedule:Compact,
    Cooling Setpoint Schedule,  !- Name
    Temperature,             !- Schedule Type Limits Name
    Through: 12/31,          !- Field 1
    For: Weekdays SummerDesignDay,  !- Field 2
    Until: 07:00, 37.0,      !- Field 4
    Until: 08:00, 28.0,      !- Field 6
    Until: 19:00, 26.0,      !- Field 8
    Until: 24:00, 37.0,      !- Field 10
    For WinterDesignDay,     !- Field 11
    Until: 24:00, 37.0,      !- Field 13
    For: Saturday Sunday Holidays AllOtherDays,  !- Field 14
    Until: 24:00, 37.0;      !- Field 16

Schedule:Compact,
    Office Activity Schedule,!- Name
    Any Number,              !- Schedule Type Limits Name
    Through: 12/31,          !- Field 1
    For: AllDays,            !- Field 2
    Until: 24:00, 120.;      !- Field 4

Schedule:Compact,
    Office Work Eff. Schedule,  !- Name
    Fraction,                !- Schedule Type Limits Name
    Through: 12/31,          !- Field 1
    For: AllDays,            !- Field 2
    Until: 24:00, 0.0;       !- Field 4

Schedule:Compact,
    Office Clothing Schedule,!- Name
    Any Number,              !- Schedule Type Limits Name
    Through: 04/30,          !- Field 1
    For: AllDays,            !- Field 2
    Until: 24:00, 1.0,       !- Field 4
    Through: 09/30,          !- Field 5
    For: AllDays,            !- Field 6
    Until: 24:00, 0.5,       !- Field 8
    Through: 12/31,          !- Field 9
    For: AllDays,            !- Field 10
    Until: 24:00, 1.0;       !- Field 12

Schedule:Compact,
    Air Velo Sch,            !- Name
    Any Number,              !- Schedule Type Limits Name
    Through: 12/31,          !- Field 1
    For: AllDays,            !- Field 2
    Until: 24:00, 0.1;       !- Field 4

Schedule:Compact,
    SystemAvailSched,        !- Name
    Fraction,                !- Schedule Type Limits Name
    Through: 12/31,          !- Field 1
    For: WeekDays,           !- Field 2
    Until: 7:00, 0.0,        !- Field 4
    Until: 18:00, 1.0,       !- Field 6
    Until: 24:00, 0.0,       !- Field 8
    For: Weekends Holiday,   !- Field 9
    Until: 24:00, 0.0,       !- Field 11
    For: SummerDesignDay,    !- Field 12
    Until: 24:00, 1.0,       !- Field 14
    For: WinterDesignDay,    !- Field 15
    Until: 24:00, 1.0;       !- Field 17

Zone,
    Zone-1-Factory,          !- Name
    0.0,                     !- Direction of Relative North {deg}
    0.0, 0.0, 0.0,                      !- X,Y,Z  {m}
    ,                        !- Type
    1;                       !- Multiplier

BuildingSurface:Detailed,
    Zone-1-Factory-Floor,    !- Name
    Floor,                   !- Surface Type
    Exterior Floor,          !- Construction Name
    Zone-1-Factory,          !- Zone Name
    Ground,                  !- Outside Boundary Condition
    ,                        !- Outside Boundary Condition Object
    NoSun,                   !- Sun Exposure
    NoWind,                  !- Wind Exposure
    0.0,                     !- View Factor to Ground
    4,                       !- Number of Vertices
    63.000000000000, 8.300000000000, 0.000000000000,
                                        !- X,Y,Z  1 {m}
    63.000000000000, 0.000000000000, 0.000000000000,
                                        !- X,Y,Z  2 {m}
    0.000000000000, 0.000000000000, 0.000000000000,
                                        !- X,Y,Z  3 {m}
    0.000000000000, 8.300000000000, 0.000000000000;
                                        !- X,Y,Z  4 {m}

BuildingSurface:Detailed,
    Zone-1-Factory-SouthWall,!- Name
    Wall,                    !- Surface Type
    Exterior Wall,           !- Construction Name
    Zone-1-Factory,          !- Zone Name
    Outdoors,                !- Outside Boundary Condition
    ,                        !- Outside Boundary Condition Object
    SunExposed,              !- Sun Exposure
    WindExposed,             !- Wind Exposure
    ,                        !- View Factor to Ground
    4,                       !- Number of Vertices
    0.000000000000, 0.000000000000, 8.000000000000,
                                        !- X,Y,Z  1 {m}
    0.000000000000, 0.000000000000, 0.000000000000,
                                        !- X,Y,Z  2 {m}
    63.000000000000, 0.000000000000, 0.000000000000,
                                        !- X,Y,Z  3 {m}
    63.000000000000, 0.000000000000, 8.000000000000;
                                        !- X,Y,Z  4 {m}

BuildingSurface:Detailed,
    Zone-1-Factory-NorthInWall,  !- Name
    Wall,                    !- Surface Type
    Interior Wall,           !- Construction Name
    Zone-1-Factory,          !- Zone Name
    Adiabatic,               !- Outside Boundary Condition
    ,                        !- Outside Boundary Condition Object
    NoSun,                   !- Sun Exposure
    NoWind,                  !- Wind Exposure
    0.0,                     !- View Factor to Ground
    4,                       !- Number of Vertices
    63.000000000000, 8.300000000000, 8.000000000000,
                                        !- X,Y,Z  1 {m}
    63.000000000000, 8.300000000000, 0.000000000000,
                                        !- X,Y,Z  2 {m}
    0.000000000000, 8.300000000000, 0.000000000000,
                                        !- X,Y,Z  3 {m}
    0.000000000000, 8.300000000000, 8.000000000000;
                                        !- X,Y,Z  4 {m}

BuildingSurface:Detailed,
    Zone-1-Factory-WestWall, !- Name
    Wall,                    !- Surface Type
    Exterior Wall,           !- Construction Name
    Zone-1-Factory,          !- Zone Name
    Outdoors,                !- Outside Boundary Condition
    ,                        !- Outside Boundary Condition Object
    SunExposed,              !- Sun Exposure
    WindExposed,             !- Wind Exposure
    ,                        !- View Factor to Ground
    4,                       !- Number of Vertices
    0.000000000000, 8.300000000000, 8.000000000000,
                                        !- X,Y,Z  1 {m}
    0.000000000000, 8.300000000000, 0.000000000000,
                                        !- X,Y,Z  2 {m}
    0.000000000000, 0.000000000000, 0.000000000000,
                                        !- X,Y,Z  3 {m}
    0.000000000000, 0.000000000000, 8.000000000000;
                                        !- X,Y,Z  4 {m}

BuildingSurface:Detailed,
    Zone-1-Factory-Roof,     !- Name
    Roof,                    !- Surface Type
    Heavy Roof,              !- Construction Name
    Zone-1-Factory,          !- Zone Name
    Outdoors,                !- Outside Boundary Condition
    ,                        !- Outside Boundary Condition Object
    SunExposed,              !- Sun Exposure
    WindExposed,             !- Wind Exposure
    ,                        !- View Factor to Ground
    4,                       !- Number of Vertices
    0.000000000000, 8.300000000000, 8.000000000000,
                                        !- X,Y,Z  1 {m}
    0.000000000000, 0.000000000000, 8.000000000000,
                                        !- X,Y,Z  2 {m}
    63.000000000000, 0.000000000000, 8.000000000000,
                                        !- X,Y,Z  3 {m}
    63.000000000000, 8.300000000000, 8.000000000000;
                                        !- X,Y,Z  4 {m}

BuildingSurface:Detailed,
    Zone-1-Factory-EastWall, !- Name
    Wall,                    !- Surface Type
    Exterior Wall,           !- Construction Name
    Zone-1-Factory,          !- Zone Name
    Outdoors,                !- Outside Boundary Condition
    ,                        !- Outside Boundary Condition Object
    SunExposed,              !- Sun Exposure
    WindExposed,             !- Wind Exposure
    ,                        !- View Factor to Ground
    4,                       !- Number of Vertices
    63.000000000000, 0.000000000000, 8.000000000000,
                                        !- X,Y,Z  1 {m}
    63.000000000000, 0.000000000000, 0.000000000000,
                                        !- X,Y,Z  2 {m}
    63.000000000000, 8.300000000000, 0.000000000000,
                                        !- X,Y,Z  3 {m}
    63.000000000000, 8.300000000000, 8.000000000000;
                                        !- X,Y,Z  4 {m}

Zone,
    Zone-1-Auto,             !- Name
    0.0,                     !- Direction of Relative North {deg}
    0.0, 0.0, 0.0,                      !- X,Y,Z  {m}
    ,                        !- Type
    1;                       !- Multiplier

BuildingSurface:Detailed,
    Zone-1-Auto-Floor,       !- Name
    Floor,                   !- Surface Type
    Exterior Floor,          !- Construction Name
    Zone-1-Auto,             !- Zone Name
    Ground,                  !- Outside Boundary Condition
    ,                        !- Outside Boundary Condition Object
    NoSun,                   !- Sun Exposure
    NoWind,                  !- Wind Exposure
    0.0,                     !- View Factor to Ground
    4,                       !- Number of Vertices
    63.000000000000, 35.000000000000, 0.000000000000,
                                        !- X,Y,Z  1 {m}
    63.000000000000, 8.300000000000, 0.000000000000,
                                        !- X,Y,Z  2 {m}
    0.000000000000, 8.300000000000, 0.000000000000,
                                        !- X,Y,Z  3 {m}
    0.000000000000, 35.000000000000, 0.000000000000;
                                        !- X,Y,Z  4 {m}

BuildingSurface:Detailed,
    Zone-1-Auto-Ceiling,     !- Name
    Ceiling,                 !- Surface Type
    Interior Ceiling,        !- Construction Name
    Zone-1-Auto,             !- Zone Name
    Adiabatic,               !- Outside Boundary Condition
    ,                        !- Outside Boundary Condition Object
    NoSun,                   !- Sun Exposure
    NoWind,                  !- Wind Exposure
    0.0,                     !- View Factor to Ground
    4,                       !- Number of Vertices
    0.000000000000, 35.000000000000, 8.000000000000,
                                        !- X,Y,Z  1 {m}
    0.000000000000, 8.300000000000, 8.000000000000,
                                        !- X,Y,Z  2 {m}
    63.000000000000, 8.300000000000, 8.000000000000,
                                        !- X,Y,Z  3 {m}
    63.000000000000, 35.000000000000, 8.000000000000;
                                        !- X,Y,Z  4 {m}

BuildingSurface:Detailed,
    Zone-1-Auto-EastInWall,  !- Name
    Wall,                    !- Surface Type
    Interior Wall,           !- Construction Name
    Zone-1-Auto,             !- Zone Name
    Adiabatic,               !- Outside Boundary Condition
    ,                        !- Outside Boundary Condition Object
    NoSun,                   !- Sun Exposure
    NoWind,                  !- Wind Exposure
    0.0,                     !- View Factor to Ground
    4,                       !- Number of Vertices
    63.000000000000, 8.300000000000, 8.000000000000,
                                        !- X,Y,Z  1 {m}
    63.000000000000, 8.300000000000, 0.000000000000,
                                        !- X,Y,Z  2 {m}
    63.000000000000, 35.000000000000, 0.000000000000,
                                        !- X,Y,Z  3 {m}
    63.000000000000, 35.000000000000, 8.000000000000;
                                        !- X,Y,Z  4 {m}

BuildingSurface:Detailed,
    Zone-1-Auto-WestWall,    !- Name
    Wall,                    !- Surface Type
    Exterior Wall,           !- Construction Name
    Zone-1-Auto,             !- Zone Name
    Outdoors,                !- Outside Boundary Condition
    ,                        !- Outside Boundary Condition Object
    SunExposed,              !- Sun Exposure
    WindExposed,             !- Wind Exposure
    ,                        !- View Factor to Ground
    4,                       !- Number of Vertices
    0.000000000000, 35.000000000000, 8.000000000000,
                                        !- X,Y,Z  1 {m}
    0.000000000000, 35.000000000000, 0.000000000000,
                                        !- X,Y,Z  2 {m}
    0.000000000000, 8.300000000000, 0.000000000000,
                                        !- X,Y,Z  3 {m}
    0.000000000000, 8.300000000000, 8.000000000000;
                                        !- X,Y,Z  4 {m}

BuildingSurface:Detailed,
    Zone-1-Auto-NorthWall,   !- Name
    Wall,                    !- Surface Type
    Exterior Wall,           !- Construction Name
    Zone-1-Auto,             !- Zone Name
    Outdoors,                !- Outside Boundary Condition
    ,                        !- Outside Boundary Condition Object
    SunExposed,              !- Sun Exposure
    WindExposed,             !- Wind Exposure
    ,                        !- View Factor to Ground
    4,                       !- Number of Vertices
    63.000000000000, 35.000000000000, 8.000000000000,
                                        !- X,Y,Z  1 {m}
    63.000000000000, 35.000000000000, 0.000000000000,
                                        !- X,Y,Z  2 {m}
    0.000000000000, 35.000000000000, 0.000000000000,
                                        !- X,Y,Z  3 {m}
    0.000000000000, 35.000000000000, 8.000000000000;
                                        !- X,Y,Z  4 {m}

BuildingSurface:Detailed,
    Zone-1-Auto-SouthInWall, !- Name
    Wall,                    !- Surface Type
    Interior Wall,           !- Construction Name
    Zone-1-Auto,             !- Zone Name
    Adiabatic,               !- Outside Boundary Condition
    ,                        !- Outside Boundary Condition Object
    NoSun,                   !- Sun Exposure
    NoWind,                  !- Wind Exposure
    0.0,                     !- View Factor to Ground
    4,                       !- Number of Vertices
    0.000000000000, 8.300000000000, 8.000000000000,
                                        !- X,Y,Z  1 {m}
    0.000000000000, 8.300000000000, 0.000000000000,
                                        !- X,Y,Z  2 {m}
    63.000000000000, 8.300000000000, 0.000000000000,
                                        !- X,Y,Z  3 {m}
    63.000000000000, 8.300000000000, 8.000000000000;
                                        !- X,Y,Z  4 {m}

Zone,
    Zone-1-Exhabit,          !- Name
    0.0,                     !- Direction of Relative North {deg}
    0.0, 0.0, 0.0,                      !- X,Y,Z  {m}